Circuit: * C:\Users\david\Google Drive\ETSIT\CELT\CELT\ENTREGA\LTSPICE\Filtro paso banda.asc

Direct Newton iteration for .op point succeeded.

Date: Tue Dec 11 09:35:08 2018
Total elapsed time: 0.037 seconds.

tnom = 27
temp = 27
method = trap
totiter = 49
traniter = 0
tranpoints = 0
accept = 0
rejected = 0
matrix size = 30
fillins = 39
solver = Normal
Matrix Compiler1:     197 opcodes
Matrix Compiler2:     235 opcodes
